# shellcheck disable=SC2148
# shellcheck disable=SC2034
NFQWS_PORTS_TCP=(80 443)
NFQWS_PORTS_UDP=(443 50000-50099)
NFQWS_OPT="
--filter-tcp=80 --domcase --methodeol --dpi-desync=fake,multisplit --dpi-desync-autottl=3 --dpi-desync-fooling=md5sig $HOSTLIST --new
--filter-tcp=443 --dpi-desync=fake,multisplit --dpi-desync-repeats=11 --dpi-desync-fooling=md5sig --dpi-desync-fake-tls=$MODPATH/fake/tls_clienthello_vk_com.bin --dpi-desync-fake-tls-mod=rnd,dupsid,sni=vk.com --dpi-desync-split-seqovl=681 $HOSTLIST --new
--filter-udp=443 --dpi-desync=fake --dpi-desync-udplen-increment=250 --dpi-desync-udplen-pattern=$MODPATH/fake/tls_clienthello_gosuslugi_ru.bin --dpi-desync-repeats=6 --dpi-desync-fake-quic=$MODPATH/fake/quic_initial_vk_com.bin $HOSTLIST --new
--filter-udp=50000-50099 --filter-l7=discord,stun --dpi-desync=fake --dpi-desync-repeats=5 --dpi-desync-udplen-increment=200 --dpi-desync-udplen-pattern=$MODPATH/fake/tls_clienthello_gosuslugi_ru.bin
"
CONNBYTES_SUPPORT=0
MARK_SUPPORT=1
MULTIPORT_SUPPORT=0
AUTOSTART=0